7
0 1
 Ti                -2.46079611    1.03136307    0.00000000
 H                 -0.84079611    1.03136307    0.00000000
 H                 -2.46079611    2.65136307    0.00000000
 H                 -2.46079611    1.03136307    1.62000000
 H                 -4.08079611    1.03136307    0.00000000
 H                 -2.46079611   -0.58863693    0.00000000
 H                 -2.46079611    1.03136307   -1.62000000

